<?xml version="1.0" encoding="utf-8"?>
<!DOCTYPE population SYSTEM "http://www.matsim.org/files/dtd/population_v6.dtd">

<population>

	<attributes>
		<attribute name="coordinateReferenceSystem" class="java.lang.String">EPSG:2157</attribute>
	</attributes>


<!-- ====================================================================== -->

	<person id="heh_mm">
		<attributes>
			<attribute name="subpopulation" class="java.lang.String">low income</attribute>
		</attributes>
		<plan selected="yes">
			<activity type="home" link="3-3" x="10100.0" y="5100.0" end_time="07:25:00" >
			</activity>
			<leg mode="walk" dep_time="07:25:00" trav_time="00:00:00">
				<attributes>
					<attribute name="routingMode" class="java.lang.String">train</attribute>
				</attributes>
				<route type="generic" start_link="3-3" end_link="3-3rail" trav_time="00:00:00" distance="0.0"></route>
			</leg>
			<activity type="pt interaction" link="3-3rail" x="10100.0" y="5100.0" max_dur="00:00:00" >
			</activity>
			<leg mode="train" dep_time="07:25:00" trav_time="00:16:00">
				<attributes>
					<attribute name="routingMode" class="java.lang.String">train</attribute>
				</attributes>
				<route type="default_pt" start_link="3-3rail" end_link="2-2rail" trav_time="00:16:00" distance="5010.0">{"transitRouteId":"city_rail","boardingTime":"07:31:00","transitLineId":"city_rail","accessFacilityId":"F","egressFacilityId":"E"}</route>
			</leg>
			<activity type="pt interaction" link="2-2rail" x="5100.0" y="5100.0" max_dur="00:00:00" >
			</activity>
			<leg mode="walk" dep_time="07:41:00" trav_time="00:03:40">
				<attributes>
					<attribute name="routingMode" class="java.lang.String">train</attribute>
				</attributes>
				<route type="generic" start_link="2-2rail" end_link="2-2" trav_time="00:03:40" distance="183.84776310850236"></route>
			</leg>
			<activity type="pt interaction" link="2-2" x="5000.0" y="5000.0" max_dur="00:00:00" >
			</activity>
			<leg mode="bus" dep_time="07:44:40" trav_time="00:35:19">
				<attributes>
					<attribute name="routingMode" class="java.lang.String">train</attribute>
				</attributes>
				<route type="default_pt" start_link="2-2" end_link="3-3" trav_time="00:35:19" distance="NaN">{"transitRouteId":"city_bus","boardingTime":"08:10:00","transitLineId":"city_bus","accessFacilityId":"B","egressFacilityId":"C"}</route>
			</leg>
			<activity type="pt interaction" link="3-3" x="5000.0" y="10000.0" max_dur="00:00:00" >
			</activity>
			<leg mode="walk" dep_time="08:20:00" trav_time="00:02:36">
				<attributes>
					<attribute name="routingMode" class="java.lang.String">train</attribute>
				</attributes>
				<route type="generic" start_link="3-3" end_link="4-4" trav_time="00:02:36" distance="130.0"></route>
			</leg>
			<activity type="education" link="4-4" x="5100.0" y="10000.0" end_time="16:30:00" >
			</activity>
			<leg mode="walk" dep_time="16:30:00" trav_time="00:02:36">
				<attributes>
					<attribute name="routingMode" class="java.lang.String">train</attribute>
				</attributes>
				<route type="generic" start_link="4-4" end_link="3-3" trav_time="00:02:36" distance="130.0"></route>
			</leg>
			<activity type="pt interaction" link="3-3" x="5000.0" y="10000.0" max_dur="00:00:00" >
			</activity>
			<leg mode="bus" dep_time="16:32:36" trav_time="00:27:24">
				<attributes>
					<attribute name="routingMode" class="java.lang.String">train</attribute>
				</attributes>
				<route type="default_pt" start_link="3-3" end_link="2-2" trav_time="00:27:24" distance="NaN">{"transitRouteId":"city_bus","boardingTime":"16:50:00","transitLineId":"city_bus","accessFacilityId":"C","egressFacilityId":"B"}</route>
			</leg>
			<activity type="pt interaction" link="2-2" x="5000.0" y="5000.0" max_dur="00:00:00" >
			</activity>
			<leg mode="walk" dep_time="17:00:00" trav_time="00:03:40">
				<attributes>
					<attribute name="routingMode" class="java.lang.String">train</attribute>
				</attributes>
				<route type="generic" start_link="2-2" end_link="2-2rail" trav_time="00:03:40" distance="183.84776310850236"></route>
			</leg>
			<activity type="pt interaction" link="2-2rail" x="5100.0" y="5100.0" max_dur="00:00:00" >
			</activity>
			<leg mode="train" dep_time="17:03:40" trav_time="00:17:19">
				<attributes>
					<attribute name="routingMode" class="java.lang.String">train</attribute>
				</attributes>
				<route type="default_pt" start_link="2-2rail" end_link="3-3rail" trav_time="00:17:19" distance="5010.0">{"transitRouteId":"city_rail","boardingTime":"17:11:00","transitLineId":"city_rail","accessFacilityId":"E","egressFacilityId":"F"}</route>
			</leg>
			<activity type="pt interaction" link="3-3rail" x="10100.0" y="5100.0" max_dur="00:00:00" >
			</activity>
			<leg mode="walk" dep_time="17:21:00" trav_time="00:02:36">
				<attributes>
					<attribute name="routingMode" class="java.lang.String">train</attribute>
				</attributes>
				<route type="generic" start_link="3-3rail" end_link="3-3" trav_time="00:02:36" distance="130.0"></route>
			</leg>
			<activity type="home" link="3-3" x="10000.0" y="5100.0" >
			</activity>
		</plan>

	</person>

<!-- ====================================================================== -->

	<person id="hwh_bus">
		<attributes>
			<attribute name="subpopulation" class="java.lang.String">medium income</attribute>
		</attributes>
		<plan selected="yes">
			<activity type="home" link="1-1" x="0.0" y="5100.0" end_time="07:25:00" >
			</activity>
			<leg mode="walk" dep_time="07:25:00" trav_time="00:02:36">
				<attributes>
					<attribute name="routingMode" class="java.lang.String">bus</attribute>
				</attributes>
				<route type="generic" start_link="1-1" end_link="1-1" trav_time="00:02:36" distance="130.0"></route>
			</leg>
			<activity type="pt interaction" link="1-1" x="0.0" y="5000.0" max_dur="00:00:00" >
			</activity>
			<leg mode="bus" dep_time="07:27:36" trav_time="00:12:24">
				<attributes>
					<attribute name="routingMode" class="java.lang.String">bus</attribute>
				</attributes>
				<route type="default_pt" start_link="1-1" end_link="2-2" trav_time="00:12:24" distance="5001.0">{"transitRouteId":"city_bus","boardingTime":"07:30:00","transitLineId":"city_bus","accessFacilityId":"A","egressFacilityId":"B"}</route>
			</leg>
			<activity type="pt interaction" link="2-2" x="5000.0" y="5000.0" max_dur="00:00:00" >
			</activity>
			<leg mode="walk" dep_time="07:40:00" trav_time="00:03:41">
				<attributes>
					<attribute name="routingMode" class="java.lang.String">bus</attribute>
				</attributes>
				<route type="generic" start_link="2-2" end_link="2-2" trav_time="00:03:41" distance="183.84776310850236"></route>
			</leg>
			<activity type="work" link="2-2" x="5100.0" y="5100.0" end_time="16:30:00" >
			</activity>
			<leg mode="walk" dep_time="16:30:00" trav_time="00:03:41">
				<attributes>
					<attribute name="routingMode" class="java.lang.String">bus</attribute>
				</attributes>
				<route type="generic" start_link="2-2" end_link="2-2" trav_time="00:03:41" distance="183.84776310850236"></route>
			</leg>
			<activity type="pt interaction" link="2-2" x="5000.0" y="5000.0" max_dur="00:00:00" >
			</activity>
			<leg mode="bus" dep_time="16:33:41" trav_time="00:56:19">
				<attributes>
					<attribute name="routingMode" class="java.lang.String">bus</attribute>
				</attributes>
				<route type="default_pt" start_link="2-2" end_link="1-1" trav_time="00:56:19" distance="NaN">{"transitRouteId":"city_bus","boardingTime":"17:20:00","transitLineId":"city_bus","accessFacilityId":"B","egressFacilityId":"A"}</route>
			</leg>
			<activity type="pt interaction" link="1-1" x="0.0" y="5000.0" max_dur="00:00:00" >
			</activity>
			<leg mode="walk" dep_time="17:30:00" trav_time="00:02:36">
				<attributes>
					<attribute name="routingMode" class="java.lang.String">bus</attribute>
				</attributes>
				<route type="generic" start_link="1-1" end_link="1-1" trav_time="00:02:36" distance="130.0"></route>
			</leg>
			<activity type="home" link="1-1" x="0.0" y="5100.0" >
			</activity>
		</plan>

	</person>

<!-- ====================================================================== -->

	<person id="hwh_car">
		<attributes>
			<attribute name="subpopulation" class="java.lang.String">high income</attribute>
		</attributes>
		<plan selected="yes">
			<activity type="home" link="1-1" x="0.0" y="5100.0" end_time="07:25:00" >
			</activity>
			<leg mode="car" dep_time="07:25:00" trav_time="00:16:40">
				<attributes>
					<attribute name="routingMode" class="java.lang.String">car</attribute>
				</attributes>
				<route type="links" start_link="1-1" end_link="2-2" trav_time="00:16:40" distance="10001.0" vehicleRefId="null">1-1 1-2 3-2 2-2</route>
			</leg>
			<activity type="work" link="2-2" x="5100.0" y="5100.0" end_time="16:30:00" >
			</activity>
			<leg mode="car" dep_time="16:30:00" trav_time="00:16:40">
				<attributes>
					<attribute name="routingMode" class="java.lang.String">car</attribute>
				</attributes>
				<route type="links" start_link="2-2" end_link="1-1" trav_time="00:16:40" distance="10010.0" vehicleRefId="null">2-2 2-3 2-1 1-1</route>
			</leg>
			<activity type="home" link="1-1" x="0.0" y="5100.0" >
			</activity>
		</plan>

	</person>

<!-- ====================================================================== -->

	<person id="hwh_train">
		<attributes>
			<attribute name="subpopulation" class="java.lang.String">medium income</attribute>
		</attributes>
		<plan selected="yes">
			<activity type="home" link="3-3" x="10100.0" y="5100.0" end_time="07:25:00" >
			</activity>
			<leg mode="walk" dep_time="07:25:00" trav_time="00:00:00">
				<attributes>
					<attribute name="routingMode" class="java.lang.String">train</attribute>
				</attributes>
				<route type="generic" start_link="3-3" end_link="3-3rail" trav_time="00:00:00" distance="0.0"></route>
			</leg>
			<activity type="pt interaction" link="3-3rail" x="10100.0" y="5100.0" max_dur="00:00:00" >
			</activity>
			<leg mode="train" dep_time="07:25:00" trav_time="00:16:00">
				<attributes>
					<attribute name="routingMode" class="java.lang.String">train</attribute>
				</attributes>
				<route type="default_pt" start_link="3-3rail" end_link="2-2rail" trav_time="00:16:00" distance="5010.0">{"transitRouteId":"city_rail","boardingTime":"07:31:00","transitLineId":"city_rail","accessFacilityId":"F","egressFacilityId":"E"}</route>
			</leg>
			<activity type="pt interaction" link="2-2rail" x="5100.0" y="5100.0" max_dur="00:00:00" >
			</activity>
			<leg mode="walk" dep_time="07:41:00" trav_time="00:00:00">
				<attributes>
					<attribute name="routingMode" class="java.lang.String">train</attribute>
				</attributes>
				<route type="generic" start_link="2-2rail" end_link="2-2" trav_time="00:00:00" distance="0.0"></route>
			</leg>
			<activity type="work" link="2-2" x="5100.0" y="5100.0" end_time="16:30:00" >
			</activity>
			<leg mode="walk" dep_time="16:30:00" trav_time="00:00:00">
				<attributes>
					<attribute name="routingMode" class="java.lang.String">train</attribute>
				</attributes>
				<route type="generic" start_link="2-2" end_link="2-2rail" trav_time="00:00:00" distance="0.0"></route>
			</leg>
			<activity type="pt interaction" link="2-2rail" x="5100.0" y="5100.0" max_dur="00:00:00" >
			</activity>
			<leg mode="train" dep_time="16:30:00" trav_time="00:21:00">
				<attributes>
					<attribute name="routingMode" class="java.lang.String">train</attribute>
				</attributes>
				<route type="default_pt" start_link="2-2rail" end_link="3-3rail" trav_time="00:21:00" distance="5010.0">{"transitRouteId":"city_rail","boardingTime":"16:41:00","transitLineId":"city_rail","accessFacilityId":"E","egressFacilityId":"F"}</route>
			</leg>
			<activity type="pt interaction" link="3-3rail" x="10100.0" y="5100.0" max_dur="00:00:00" >
			</activity>
			<leg mode="walk" dep_time="16:51:00" trav_time="00:02:36">
				<attributes>
					<attribute name="routingMode" class="java.lang.String">train</attribute>
				</attributes>
				<route type="generic" start_link="3-3rail" end_link="3-3" trav_time="00:02:36" distance="130.0"></route>
			</leg>
			<activity type="home" link="3-3" x="10000.0" y="5100.0" >
			</activity>
		</plan>

	</person>

<!-- ====================================================================== -->

</population>
